Circuit: * C:\Users\johba\OneDrive\Skrivebord\equaliser\Draft1.asc


Date: Wed Mar 06 09:46:57 2024
Total elapsed time: 0.023 seconds.

tnom = 27
temp = 27
method = trap
totiter = 0
traniter = 0
tranpoints = 0
accept = 0
rejected = 0
matrix size = 4
fillins = 0
solver = Normal

