Circuit: * C:\Users\johba\ESD4_project\equaliser\equaliser.asc

Direct Newton iteration for .op point succeeded.

Date: Wed Mar 06 11:05:18 2024
Total elapsed time: 0.090 seconds.

tnom = 27
temp = 27
method = trap
totiter = 3
traniter = 0
tranpoints = 0
accept = 0
rejected = 0
matrix size = 33
fillins = 4
solver = Normal
Matrix Compiler1:     147 opcodes
Matrix Compiler2: 3.37 KB object code size
