Circuit: * C:\Users\johba\ESD4_project\figures\system_design\riaa_pa\Draft1.asc

WARNING: Less than two connections to node N004.  This node is used by V1.

Date: Sun May 05 19:21:10 2024
Total elapsed time: 0.017 seconds.

tnom = 27
temp = 27
method = trap
totiter = 0
traniter = 0
tranpoints = 0
accept = 0
rejected = 0
matrix size = 6
fillins = 0
solver = Normal

