Circuit: * C:\Users\johba\ESD4_project\figures\system_design\riaa_pa\Draft2.asc


Date: Mon May 06 15:42:49 2024
Total elapsed time: 0.018 seconds.

tnom = 27
temp = 27
method = trap
totiter = 0
traniter = 0
tranpoints = 0
accept = 0
rejected = 0
matrix size = 3
fillins = 1
solver = Normal

